Circuit: * C:\Users\konta\Desktop\LightAlarm\External Light\LED dimmer using MOSFET PWM.asc

Limiting rise time of source v§arduino-pwm to 0.0025
Limiting fall time of source v§arduino-pwm to 0.0025
Direct Newton iteration for .op point succeeded.

Date: Mon Mar 30 17:42:46 2020
Total elapsed time: 0.157 seconds.

tnom = 27
temp = 27
method = modified trap
totiter = 8366
traniter = 8344
tranpoints = 2765
accept = 2266
rejected = 499
matrix size = 11
fillins = 0
solver = Normal
Matrix Compiler1: 476 bytes object code size  0.1/0.1/[0.1]
Matrix Compiler2: off  [0.1]/0.1/0.1

