Circuit: * C:\Users\konta\Desktop\LightAlarm\External Light\LED dimmer using MOSFET PWM.asc

Limiting rise time of source v§arduino-pwm to 0.0025
Limiting fall time of source v§arduino-pwm to 0.0025
WARNING: Less than two connections to node N002.  This node is used by R2.
Direct Newton iteration for .op point succeeded.

Date: Wed Apr 01 16:49:11 2020
Total elapsed time: 0.134 seconds.

tnom = 27
temp = 27
method = modified trap
totiter = 7914
traniter = 7894
tranpoints = 2755
accept = 2311
rejected = 444
matrix size = 14
fillins = 0
solver = Normal
Matrix Compiler1: 626 bytes object code size  0.1/0.1/[0.1]
Matrix Compiler2: off  [0.1]/0.1/0.1

